 &NAMRKN
 FHKEN=1.,
 NPOINT= 1300 ,
 GPDNAM(1)='YAJ ', GPDLAT(1)=169.58, GPDLON(1)=-140.18, GPDGZS(1)=9999,
 GPDNAM(2)='WRP ', GPDLAT(2)=169.90, GPDLON(2)=-128.97, GPDGZS(2)=9999,
 GPDNAM(3)='WXK ', GPDLAT(3)=169.58, GPDLON(3)=-120.75, GPDGZS(3)=9999,
 GPDNAM(4)='SRR ', GPDLAT(4)=165.00, GPDLON(4)=-132.00, GPDGZS(4)=9999,
 GPDNAM(5)='CRR ', GPDLAT(5)=165.00, GPDLON(5)=-120.00, GPDGZS(5)=9999,
 GPDNAM(6)='WTD ', GPDLAT(6)=165.10, GPDLON(6)=-102.43, GPDGZS(6)=9999,
 GPDNAM(7)='MTL ', GPDLAT(7)=160.00, GPDLON(7)=-140.00, GPDGZS(7)=9999,
 GPDNAM(8)='EFL ', GPDLAT(8)=160.00, GPDLON(8)=-120.00, GPDGZS(8)=9999,
 GPDNAM(9)='ENL ', GPDLAT(9)=160.00, GPDLON(9)=-100.00, GPDGZS(9)=9999,
 GPDNAM(10)='SWW ', GPDLAT(10)=157.00, GPDLON(10)=-127.00, GPDGZS(10)=9999,
 GPDNAM(11)='PASC', GPDLAT(11)=170.20, GPDLON(11)=-148.47, GPDGZS(11)=  17,
 GPDNAM(12)='CHRL', GPDLAT(12)=153.63, GPDLON(12)=-106.20, GPDGZS(12)=9999,
 GPDNAM(13)='PAFM', GPDLAT(13)=167.10, GPDLON(13)=-157.85, GPDGZS(13)=  88,
 GPDNAM(14)='CNLK', GPDLAT(14)=153.99, GPDLON(14)=-105.12, GPDGZS(14)=9999,
 GPDNAM(15)='WJA ', GPDLAT(15)=152.88, GPDLON(15)=-118.07, GPDGZS(15)=9999,
 GPDNAM(16)='FTR ', GPDLAT(16)=162.50, GPDLON(16)=-107.00, GPDGZS(16)=9999,
 GPDNAM(17)='GTP ', GPDLAT(17)=143.90, GPDLON(17)=-110.00, GPDGZS(17)=9999,
 GPDNAM(18)='WTT ', GPDLAT(18)=144.80, GPDLON(18)=-096.70, GPDGZS(18)=9999,
 GPDNAM(19)='CHE ', GPDLAT(19)=143.50, GPDLON(19)=-095.60, GPDGZS(19)=9999,
 GPDNAM(20)='CRL ', GPDLAT(20)=142.00, GPDLON(20)=-095.00, GPDGZS(20)=9999,
 GPDNAM(21)='AIA ', GPDLAT(21)=140.90, GPDLON(21)=-092.80, GPDGZS(21)=9999,
 GPDNAM(22)='ABL ', GPDLAT(22)=134.10, GPDLON(22)=-086.10, GPDGZS(22)=9999,
 GPDNAM(23)='CLD ', GPDLAT(23)=135.20, GPDLON(23)=-084.80, GPDGZS(23)=9999,
 GPDNAM(24)='BRA ', GPDLAT(24)=134.80, GPDLON(24)=-084.05, GPDGZS(24)=9999,
 GPDNAM(25)='FRI ', GPDLAT(25)=136.72, GPDLON(25)=-080.97, GPDGZS(25)=9999,
 GPDNAM(26)='LRR ', GPDLAT(26)=148.00, GPDLON(26)=-113.00, GPDGZS(26)=9999,
 GPDNAM(27)='PSR ', GPDLAT(27)=142.20, GPDLON(27)=-107.20, GPDGZS(27)=9999,
 GPDNAM(28)='LUS ', GPDLAT(28)=142.50, GPDLON(28)=-104.40, GPDGZS(28)=9999,
 GPDNAM(29)='ATH ', GPDLAT(29)=142.30, GPDLON(29)=-102.40, GPDGZS(29)=9999,
 GPDNAM(30)='AIH ', GPDLAT(30)=142.60, GPDLON(30)=-099.90, GPDGZS(30)=9999,
 GPDNAM(31)='LDL ', GPDLAT(31)=139.10, GPDLON(31)=-106.20, GPDGZS(31)=9999,
 GPDNAM(32)='CAI ', GPDLAT(32)=137.30, GPDLON(32)=-088.90, GPDGZS(32)=9999,
 GPDNAM(33)='KKL ', GPDLAT(33)=140.20, GPDLON(33)=-092.60, GPDGZS(33)=9999,
 GPDNAM(34)='LW1 ', GPDLAT(34)=134.90, GPDLON(34)=-098.10, GPDGZS(34)=9999,
 GPDNAM(35)='FPK ', GPDLAT(35)=148.31, GPDLON(35)=-105.10, GPDGZS(35)= 634,
 GPDNAM(36)='GNC ', GPDLAT(36)=134.25, GPDLON(36)=-089.87, GPDGZS(36)=  98,
 GPDNAM(37)='TBL ', GPDLAT(37)=140.13, GPDLON(37)=-105.24, GPDGZS(37)=1689,
 GPDNAM(38)='W#N ', GPDLAT(38)=137.48, GPDLON(38)=-096.93, GPDGZS(38)=9999,
 GPDNAM(39)='O#K ', GPDLAT(39)=135.96, GPDLON(39)=-084.29, GPDGZS(39)=9999,
 GPDNAM(40)='V#L ', GPDLAT(40)=142.86, GPDLON(40)=-100.41, GPDGZS(40)=9999,
 GPDNAM(41)='RDD ', GPDLAT(41)=140.69, GPDLON(41)=-094.47, GPDGZS(41)=9999,
 GPDNAM(42)='WHI ', GPDLAT(42)=142.04, GPDLON(42)=-077.76, GPDGZS(42)=9999,
 GPDNAM(43)='PIE ', GPDLAT(43)=139.17, GPDLON(43)=-079.52, GPDGZS(43)=9999,
 GPDNAM(44)='CLN ', GPDLAT(44)=131.71, GPDLON(44)=-089.41, GPDGZS(44)=9999,
 GPDNAM(45)='GNB ', GPDLAT(45)=244.92, GPDLON(45)=-080.42, GPDGZS(45)=9999,
 GPDNAM(46)='BH1 ', GPDLAT(46)=145.27, GPDLON(46)=-103.54, GPDGZS(46)=9999,
 GPDNAM(47)='BH2 ', GPDLAT(47)=144.79, GPDLON(47)=-104.73, GPDGZS(47)=9999,
 GPDNAM(48)='BH3 ', GPDLAT(48)=144.46, GPDLON(48)=-103.85, GPDGZS(48)=9999,
 GPDNAM(49)='BH4 ', GPDLAT(49)=143.35, GPDLON(49)=-104.69, GPDGZS(49)=9999,
 GPDNAM(50)='BH5 ', GPDLAT(50)=143.53, GPDLON(50)=-103.65, GPDGZS(50)=9999,
 GPDNAM(51)='MRS ', GPDLAT(51)=145.50, GPDLON(51)=-095.90, GPDGZS(51)=9999,
 GPDNAM(52)='WSC ', GPDLAT(52)=144.10, GPDLON(52)=-093.50, GPDGZS(52)=9999,
 GPDNAM(53)='DSC ', GPDLAT(53)=135.34, GPDLON(53)=-116.88, GPDGZS(53)= 961,
 GPDNAM(54)='RSL ', GPDLAT(54)=134.40, GPDLON(54)=-087.60, GPDGZS(54)=9999,
 GPDNAM(55)='G001', GPDLAT(55)=147.50, GPDLON(55)=-121.10, GPDGZS(55)=9999,
 GPDNAM(56)='G002', GPDLAT(56)=142.70, GPDLON(56)=-122.20, GPDGZS(56)=9999,
 GPDNAM(57)='G003', GPDLAT(57)=144.50, GPDLON(57)=-122.70, GPDGZS(57)=9999,
 GPDNAM(58)='G004', GPDLAT(58)=144.00, GPDLON(58)=-115.00, GPDGZS(58)=9999,
 GPDNAM(59)='G005', GPDLAT(59)=146.90, GPDLON(59)=-121.30, GPDGZS(59)=9999,
 GPDNAM(60)='G006', GPDLAT(60)=142.10, GPDLON(60)=-120.90, GPDGZS(60)=9999,
 GPDNAM(61)='G007', GPDLAT(61)=144.10, GPDLON(61)=-120.50, GPDGZS(61)=9999,
 GPDNAM(62)='G009', GPDLAT(62)=142.70, GPDLON(62)=-121.40, GPDGZS(62)=9999,
 GPDNAM(63)='G010', GPDLAT(63)=132.42, GPDLON(63)=-110.73, GPDGZS(63)=9999,
 GPDNAM(64)='G011', GPDLAT(64)=136.61, GPDLON(64)=-097.49, GPDGZS(64)=9999,
 GPDNAM(65)='COL1', GPDLAT(65)=145.68, GPDLON(65)=-121.27, GPDGZS(65)=9999,
 GPDNAM(66)='COL2', GPDLAT(66)=145.72, GPDLON(66)=-121.56, GPDGZS(66)=9999,
 GPDNAM(67)='COL3', GPDLAT(67)=145.68, GPDLON(67)=-120.82, GPDGZS(67)=9999,
 GPDNAM(68)='COL4', GPDLAT(68)=145.72, GPDLON(68)=-120.21, GPDGZS(68)=9999,
 GPDNAM(69)='TRAV', GPDLAT(69)=138.06, GPDLON(69)=-121.77, GPDGZS(69)=9999,
 GPDNAM(70)='PESC', GPDLAT(70)=137.10, GPDLON(70)=-122.28, GPDGZS(70)=9999,
 GPDNAM(71)='PTBA', GPDLAT(71)=137.82, GPDLON(71)=-122.47, GPDGZS(71)=9999,
 GPDNAM(72)='SANQ', GPDLAT(72)=137.94, GPDLON(72)=-122.50, GPDGZS(72)=9999,
 GPDNAM(73)='GLRY', GPDLAT(73)=137.07, GPDLON(73)=-121.12, GPDGZS(73)=9999,
 GPDNAM(74)='KBNV', GPDLAT(74)=140.20, GPDLON(74)=-113.30, GPDGZS(74)=9999,
 GPDNAM(75)='ATLH', GPDLAT(75)=140.42, GPDLON(75)=-073.98, GPDGZS(75)=9999,
 GPDNAM(76)='ATL1', GPDLAT(76)=237.20, GPDLON(76)=-074.80, GPDGZS(76)=   0,
 GPDNAM(77)='ATL2', GPDLAT(77)=236.05, GPDLON(77)=-074.25, GPDGZS(77)=   0,
 GPDNAM(78)='ATL3', GPDLAT(78)=232.80, GPDLON(78)=-077.20, GPDGZS(78)=   0,
 GPDNAM(79)='ATL4', GPDLAT(79)=238.60, GPDLON(79)=-073.75, GPDGZS(79)=   0,
 GPDNAM(80)='GMX1', GPDLAT(80)=229.20, GPDLON(80)=-087.25, GPDGZS(80)=   0,
 GPDNAM(81)='KERY', GPDLAT(81)=146.31, GPDLON(81)=-085.46, GPDGZS(81)= 265,
 GPDNAM(82)='STDM', GPDLAT(82)=247.18, GPDLON(82)=-087.22, GPDGZS(82)= 183,
 GPDNAM(83)='KMKX', GPDLAT(83)=142.97, GPDLON(83)=-088.55, GPDGZS(83)= 285,
 GPDNAM(84)='JAYV', GPDLAT(84)=144.94, GPDLON(84)=-072.51, GPDGZS(84)=1875,
 GPDNAM(85)='GRUN', GPDLAT(85)=137.27, GPDLON(85)=-082.10, GPDGZS(85)=9999,
 GPDNAM(86)='A#2 ', GPDLAT(86)=274.30, GPDLON(86)=-156.60, GPDGZS(86)=   0,
 GPDNAM(87)='A#3 ', GPDLAT(87)=275.00, GPDLON(87)=-140.00, GPDGZS(87)=   0,
 GPDNAM(88)='A#4 ', GPDLAT(88)=260.60, GPDLON(88)=-173.30, GPDGZS(88)=   0,
 GPDNAM(89)='KLCB', GPDLAT(89)=129.22, GPDLON(89)=-114.28, GPDGZS(89)=9999,
 GPDNAM(90)='REO ', GPDLAT(90)=142.59, GPDLON(90)=-117.87, GPDGZS(90)=1234,
 GPDNAM(91)='PHP ', GPDLAT(91)=144.05, GPDLON(91)=-101.60, GPDGZS(91)= 673,
 GPDNAM(92)='KLDM', GPDLAT(92)=143.58, GPDLON(92)=-086.24, GPDGZS(92)=9999,
 GPDNAM(93)='KRQB', GPDLAT(93)=143.43, GPDLON(93)=-085.30, GPDGZS(93)= 920,
 GPDNAM(94)='KMOP', GPDLAT(94)=143.37, GPDLON(94)=-084.44, GPDGZS(94)= 770,
 GPDNAM(95)='FTSR', GPDLAT(95)=134.38, GPDLON(95)=-104.23, GPDGZS(95)=9999,
 GPDNAM(96)='RUTG', GPDLAT(96)=140.50, GPDLON(96)=-074.45, GPDGZS(96)=9999,
 GPDNAM(97)='PINN', GPDLAT(97)=142.10, GPDLON(97)=-077.21, GPDGZS(97)=9999,
 GPDNAM(98)='APPL', GPDLAT(98)=242.99, GPDLON(98)=-070.62, GPDGZS(98)=   0,
 GPDNAM(99)='MCGL', GPDLAT(99)=145.50, GPDLON(99)=-073.57, GPDGZS(99)=9999,
 GPDNAM(100)='5AG ', GPDLAT(100)=258.00, GPDLON(100)=-142.00, GPDGZS(100)=   0,
 GPDNAM(101)='A#5 ', GPDLAT(101)=254.00, GPDLON(101)=-143.00, GPDGZS(101)=   0,
 GPDNAM(102)='5AF ', GPDLAT(102)=256.00, GPDLON(102)=-137.00, GPDGZS(102)=   0,
 GPDNAM(103)='A#6 ', GPDLAT(103)=255.00, GPDLON(103)=-155.00, GPDGZS(103)=   0,
 GPDNAM(104)='A#7 ', GPDLAT(104)=253.00, GPDLON(104)=-139.00, GPDGZS(104)=   0,
 GPDNAM(105)='A#8 ', GPDLAT(105)=251.10, GPDLON(105)=-147.40, GPDGZS(105)=   0,
 GPDNAM(106)='A#9 ', GPDLAT(106)=252.00, GPDLON(106)=-162.00, GPDGZS(106)=   0,
 GPDNAM(107)='A#A ', GPDLAT(107)=249.50, GPDLON(107)=-153.70, GPDGZS(107)=   0,
 GPDNAM(108)='A#B ', GPDLAT(108)=249.20, GPDLON(108)=-168.80, GPDGZS(108)=   0,
 GPDNAM(109)='S#1 ', GPDLAT(109)=250.00, GPDLON(109)=-135.00, GPDGZS(109)=   0,
 GPDNAM(110)='S#2 ', GPDLAT(110)=238.50, GPDLON(110)=-129.00, GPDGZS(110)=   0,
 GPDNAM(111)='S#3 ', GPDLAT(111)=234.00, GPDLON(111)=-126.00, GPDGZS(111)=   0,
 GPDNAM(112)='S#4 ', GPDLAT(112)=229.50, GPDLON(112)=-123.00, GPDGZS(112)=   0,
 GPDNAM(113)='S#5 ', GPDLAT(113)=225.00, GPDLON(113)=-120.00, GPDGZS(113)=   0,
 GPDNAM(114)='S#6 ', GPDLAT(114)=225.00, GPDLON(114)=-115.00, GPDGZS(114)=   0,
 GPDNAM(115)='NW1 ', GPDLAT(115)=244.30, GPDLON(115)=-140.80, GPDGZS(115)=   0,
 GPDNAM(116)='NW2 ', GPDLAT(116)=247.70, GPDLON(116)=-144.10, GPDGZS(116)=   0,
 GPDNAM(117)='NW3 ', GPDLAT(117)=237.40, GPDLON(117)=-137.00, GPDGZS(117)=   0,
 GPDNAM(118)='NW4 ', GPDLAT(118)=247.00, GPDLON(118)=-138.00, GPDGZS(118)=   0,
 GPDNAM(119)='NW5 ', GPDLAT(119)=243.60, GPDLON(119)=-135.50, GPDGZS(119)=   0,
 GPDNAM(120)='NW6 ', GPDLAT(120)=239.70, GPDLON(120)=-133.30, GPDGZS(120)=   0,
 GPDNAM(121)='NW7 ', GPDLAT(121)=248.50, GPDLON(121)=-129.50, GPDGZS(121)=   0,
 GPDNAM(122)='NW8 ', GPDLAT(122)=244.60, GPDLON(122)=-127.50, GPDGZS(122)=   0,
 GPDNAM(123)='NW9 ', GPDLAT(123)=250.50, GPDLON(123)=-141.38, GPDGZS(123)=   0,
 GPDNAM(124)='NWA ', GPDLAT(124)=240.50, GPDLON(124)=-126.98, GPDGZS(124)=   0,
 GPDNAM(125)='S#7 ', GPDLAT(125)=228.00, GPDLON(125)=-087.00, GPDGZS(125)=   0,
 GPDNAM(126)='S#8 ', GPDLAT(126)=228.20, GPDLON(126)=-093.70, GPDGZS(126)=   0,
 GPDNAM(127)='S#9 ', GPDLAT(127)=228.50, GPDLON(127)=-092.30, GPDGZS(127)=   0,
 GPDNAM(128)='S#A ', GPDLAT(128)=227.90, GPDLON(128)=-091.00, GPDGZS(128)=   0,
 GPDNAM(129)='S#B ', GPDLAT(129)=228.00, GPDLON(129)=-089.00, GPDGZS(129)=   0,
 GPDNAM(130)='S#C ', GPDLAT(130)=228.00, GPDLON(130)=-085.00, GPDGZS(130)=   0,
 GPDNAM(131)='3J2 ', GPDLAT(131)=231.00, GPDLON(131)=-079.00, GPDGZS(131)=   0,
 GPDNAM(132)='AFA ', GPDLAT(132)=248.00, GPDLON(132)=-065.00, GPDGZS(132)=   0,
 GPDNAM(133)='C01 ', GPDLAT(133)=137.20, GPDLON(133)=-118.80, GPDGZS(133)=9999,
 GPDNAM(134)='C02 ', GPDLAT(134)=147.61, GPDLON(134)=-103.26, GPDGZS(134)=9999,
 GPDNAM(135)='C03 ', GPDLAT(135)=137.80, GPDLON(135)=-097.01, GPDGZS(135)=9999,
 GPDNAM(136)='C04 ', GPDLAT(136)=134.60, GPDLON(136)=-094.30, GPDGZS(136)=9999,
 GPDNAM(137)='C06 ', GPDLAT(137)=137.90, GPDLON(137)=-095.20, GPDGZS(137)=9999,
 GPDNAM(138)='C07 ', GPDLAT(138)=138.50, GPDLON(138)=-101.50, GPDGZS(138)=9999,
 GPDNAM(139)='C08 ', GPDLAT(139)=137.40, GPDLON(139)=-105.20, GPDGZS(139)=9999,
 GPDNAM(140)='C09 ', GPDLAT(140)=136.00, GPDLON(140)=-105.30, GPDGZS(140)=9999,
 GPDNAM(141)='C10 ', GPDLAT(141)=134.20, GPDLON(141)=-101.70, GPDGZS(141)=9999,
 GPDNAM(142)='C11 ', GPDLAT(142)=133.60, GPDLON(142)=-099.30, GPDGZS(142)=9999,
 GPDNAM(143)='C12 ', GPDLAT(143)=133.70, GPDLON(143)=-097.40, GPDGZS(143)=9999,
 GPDNAM(144)='C13 ', GPDLAT(144)=137.10, GPDLON(144)=-092.30, GPDGZS(144)=9999,
 GPDNAM(145)='C14 ', GPDLAT(145)=141.00, GPDLON(145)=-107.00, GPDGZS(145)=9999,
 GPDNAM(146)='C17 ', GPDLAT(146)=146.00, GPDLON(146)=-114.00, GPDGZS(146)=9999,
 GPDNAM(147)='C18 ', GPDLAT(147)=147.00, GPDLON(147)=-112.50, GPDGZS(147)=9999,
 GPDNAM(148)='C19 ', GPDLAT(148)=149.00, GPDLON(148)=-114.00, GPDGZS(148)=9999,
 GPDNAM(149)='C20 ', GPDLAT(149)=249.50, GPDLON(149)=-108.00, GPDGZS(149)=9999,
 GPDNAM(150)='C21 ', GPDLAT(150)=249.00, GPDLON(150)=-104.00, GPDGZS(150)=9999,
 GPDNAM(151)='C22 ', GPDLAT(151)=147.50, GPDLON(151)=-099.00, GPDGZS(151)=9999,
 GPDNAM(152)='C23 ', GPDLAT(152)=146.20, GPDLON(152)=-097.50, GPDGZS(152)=9999,
 GPDNAM(153)='C24 ', GPDLAT(153)=146.00, GPDLON(153)=-095.00, GPDGZS(153)=9999,
 GPDNAM(154)='C25 ', GPDLAT(154)=140.80, GPDLON(154)=-084.20, GPDGZS(154)=9999,
 GPDNAM(155)='C27 ', GPDLAT(155)=138.00, GPDLON(155)=-080.00, GPDGZS(155)=9999,
 GPDNAM(156)='C28 ', GPDLAT(156)=134.50, GPDLON(156)=-082.50, GPDGZS(156)=9999,
 GPDNAM(157)='C30 ', GPDLAT(157)=137.50, GPDLON(157)=-096.00, GPDGZS(157)=9999,
 GPDNAM(158)='C31 ', GPDLAT(158)=138.00, GPDLON(158)=-098.40, GPDGZS(158)=9999,
 GPDNAM(159)='C32 ', GPDLAT(159)=137.35, GPDLON(159)=-099.35, GPDGZS(159)=9999,
 GPDNAM(160)='C33 ', GPDLAT(160)=135.30, GPDLON(160)=-098.90, GPDGZS(160)=9999,
 GPDNAM(161)='C34 ', GPDLAT(161)=135.50, GPDLON(161)=-097.00, GPDGZS(161)=9999,
 GPDNAM(162)='C35 ', GPDLAT(162)=134.98, GPDLON(162)=-094.69, GPDGZS(162)= 143,
 GPDNAM(163)='C36 ', GPDLAT(163)=136.60, GPDLON(163)=-101.60, GPDGZS(163)= 996,
 GPDNAM(164)='BAB ', GPDLAT(164)=139.49, GPDLON(164)=-121.61, GPDGZS(164)=  72,
 GPDNAM(165)='CBN ', GPDLAT(165)=133.90, GPDLON(165)=-088.33, GPDGZS(165)= 169,
 GPDNAM(166)='CDC ', GPDLAT(166)=137.59, GPDLON(166)=-112.86, GPDGZS(166)=1714,
 GPDNAM(167)='CVS ', GPDLAT(167)=134.64, GPDLON(167)=-103.63, GPDGZS(167)=1436,
 GPDNAM(168)='DOV ', GPDLAT(168)=138.83, GPDLON(168)=-075.43, GPDGZS(168)=  50,
 GPDNAM(169)='DYS ', GPDLAT(169)=132.54, GPDLON(169)=-099.25, GPDGZS(169)= 480,
 GPDNAM(170)='EAX ', GPDLAT(170)=138.81, GPDLON(170)=-094.26, GPDGZS(170)= 333,
 GPDNAM(171)='END ', GPDLAT(171)=136.74, GPDLON(171)=-098.13, GPDGZS(171)= 385,
 GPDNAM(172)='FDR ', GPDLAT(172)=134.36, GPDLON(172)=-098.98, GPDGZS(172)= 401,
 GPDNAM(173)='GVS ', GPDLAT(173)=140.72, GPDLON(173)=-085.93, GPDGZS(173)= 278,
 GPDNAM(174)='HOO ', GPDLAT(174)=130.72, GPDLON(174)=-097.38, GPDGZS(174)= 182,
 GPDNAM(175)='HSI ', GPDLAT(175)=140.32, GPDLON(175)=-098.44, GPDGZS(175)= 626,
 GPDNAM(176)='LOR ', GPDLAT(176)=131.46, GPDLON(176)=-085.46, GPDGZS(176)= 151,
 GPDNAM(177)='MAX ', GPDLAT(177)=132.54, GPDLON(177)=-085.79, GPDGZS(177)= 157,
 GPDNAM(178)='KMIB', GPDLAT(178)=148.50, GPDLON(178)=-101.40, GPDGZS(178)= 468,
 GPDNAM(179)='MOR ', GPDLAT(179)=136.17, GPDLON(179)=-083.40, GPDGZS(179)= 437,
 GPDNAM(180)='RME ', GPDLAT(180)=143.47, GPDLON(180)=-075.46, GPDGZS(180)= 497,
 GPDNAM(181)='WRB ', GPDLAT(181)=132.68, GPDLON(181)=-083.35, GPDGZS(181)= 187,
 GPDNAM(182)='XRW ', GPDLAT(182)=136.74, GPDLON(182)=-087.29, GPDGZS(182)= 186,
 GPDNAM(183)='UNV ', GPDLAT(183)=140.92, GPDLON(183)=-078.00, GPDGZS(183)= 756,
 GPDNAM(184)='NGX ', GPDLAT(184)=231.40, GPDLON(184)=-114.49, GPDGZS(184)=   0,
 GPDNAM(185)='AJO ', GPDLAT(185)=132.37, GPDLON(185)=-112.87, GPDGZS(185)= 549,
 GPDNAM(186)='E74 ', GPDLAT(186)=132.82, GPDLON(186)=-109.68, GPDGZS(186)= 950,
 GPDNAM(187)='LBY ', GPDLAT(187)=148.39, GPDLON(187)=-115.55, GPDGZS(187)= 579,
 GPDNAM(188)='PWD ', GPDLAT(188)=148.76, GPDLON(188)=-104.52, GPDGZS(188)= 623,
 GPDNAM(189)='SEF ', GPDLAT(189)=137.70, GPDLON(189)=-123.00, GPDGZS(189)=  25,
 GPDNAM(190)='BOD ', GPDLAT(190)=138.42, GPDLON(190)=-123.07, GPDGZS(190)=  12,
 GPDNAM(191)='BHK ', GPDLAT(191)=146.37, GPDLON(191)=-104.28, GPDGZS(191)= 903,
 GPDNAM(192)='IPX ', GPDLAT(192)=144.42, GPDLON(192)=-111.37, GPDGZS(192)=1917,
 GPDNAM(193)='MLD ', GPDLAT(193)=142.17, GPDLON(193)=-112.28, GPDGZS(193)=1363,
 GPDNAM(194)='P68 ', GPDLAT(194)=139.50, GPDLON(194)=-115.95, GPDGZS(194)=1982,
 GPDNAM(195)='BDG ', GPDLAT(195)=138.30, GPDLON(195)=-119.16, GPDGZS(195)=1200,
 GPDNAM(196)='PLB ', GPDLAT(196)=144.68, GPDLON(196)=-073.52, GPDGZS(196)=  72,
 GPDNAM(197)='8V7 ', GPDLAT(197)=137.28, GPDLON(197)=-102.61, GPDGZS(197)=1335,
 GPDNAM(198)='JACK', GPDLAT(198)=145.64, GPDLON(198)=-070.26, GPDGZS(198)=9999,
 GPDNAM(199)='ESTC', GPDLAT(199)=147.46, GPDLON(199)=-069.22, GPDGZS(199)=9999,
 GPDNAM(200)='VANC', GPDLAT(200)=145.56, GPDLON(200)=-067.43, GPDGZS(200)=9999,
 GPDNAM(201)='CAN ', GPDLAT(201)=142.05, GPDLON(201)=-073.20, GPDGZS(201)=9999,
 GPDNAM(202)='5SZ ', GPDLAT(202)=162.72, GPDLON(202)=-143.97, GPDGZS(202)=9999,
 GPDNAM(203)='AWR ', GPDLAT(203)=167.75, GPDLON(203)=-144.11, GPDGZS(203)=9999,
 GPDNAM(204)='BIR ', GPDLAT(204)=165.59, GPDLON(204)=-144.36, GPDGZS(204)=9999,
 GPDNAM(205)='BLS ', GPDLAT(205)=161.95, GPDLON(205)=-151.00, GPDGZS(205)=9999,
 GPDNAM(206)='BTL ', GPDLAT(206)=157.27, GPDLON(206)=-154.56, GPDGZS(206)=9999,
 GPDNAM(207)='BVR ', GPDLAT(207)=166.15, GPDLON(207)=-148.03, GPDGZS(207)=9999,
 GPDNAM(208)='GRF ', GPDLAT(208)=167.03, GPDLON(208)=-143.29, GPDGZS(208)=9999,
 GPDNAM(209)='HAY ', GPDLAT(209)=165.20, GPDLON(209)=-161.15, GPDGZS(209)=9999,
 GPDNAM(210)='H02 ', GPDLAT(210)=159.75, GPDLON(210)=-151.37, GPDGZS(210)=9999,
 GPDNAM(211)='INK ', GPDLAT(211)=163.39, GPDLON(211)=-158.83, GPDGZS(211)=9999,
 GPDNAM(212)='KAK ', GPDLAT(212)=156.97, GPDLON(212)=-134.00, GPDGZS(212)=9999,
 GPDNAM(213)='KEL ', GPDLAT(213)=167.95, GPDLON(213)=-162.31, GPDGZS(213)=9999,
 GPDNAM(214)='KNA ', GPDLAT(214)=160.59, GPDLON(214)=-150.32, GPDGZS(214)=9999,
 GPDNAM(215)='KNL ', GPDLAT(215)=160.37, GPDLON(215)=-149.41, GPDGZS(215)=9999,
 GPDNAM(216)='MAC ', GPDLAT(216)=161.32, GPDLON(216)=-142.59, GPDGZS(216)=9999,
 GPDNAM(217)='NCK ', GPDLAT(217)=160.03, GPDLON(217)=-151.66, GPDGZS(217)=9999,
 GPDNAM(218)='NOA ', GPDLAT(218)=168.07, GPDLON(218)=-158.71, GPDGZS(218)=9999,
 GPDNAM(219)='PANI', GPDLAT(219)=161.58, GPDLON(219)=-159.54, GPDGZS(219)=9999,
 GPDNAM(220)='PAXK', GPDLAT(220)=163.03, GPDLON(220)=-145.49, GPDGZS(220)=9999,
 GPDNAM(221)='QRZ ', GPDLAT(221)=165.41, GPDLON(221)=-164.66, GPDGZS(221)=9999,
 GPDNAM(222)='TEL ', GPDLAT(222)=163.44, GPDLON(222)=-153.36, GPDGZS(222)=9999,
 GPDNAM(223)='AHN ', GPDLAT(223)=159.25, GPDLON(223)=-135.52, GPDGZS(223)=9999,
 GPDNAM(224)='PAKW', GPDLAT(224)=155.58, GPDLON(224)=-133.10, GPDGZS(224)=9999,
 GPDNAM(225)='WON ', GPDLAT(225)=163.49, GPDLON(225)=-150.88, GPDGZS(225)=9999,
 GPDNAM(226)='TOK ', GPDLAT(226)=162.97, GPDLON(226)=-143.34, GPDGZS(226)=9999,
 GPDNAM(227)='CKN ', GPDLAT(227)=164.05, GPDLON(227)=-141.93, GPDGZS(227)=9999,
 GPDNAM(228)='NRU ', GPDLAT(228)=166.85, GPDLON(228)=-154.34, GPDGZS(228)=9999,
 GPDNAM(229)='KAN ', GPDLAT(229)=166.08, GPDLON(229)=-152.17, GPDGZS(229)=9999,
 GPDNAM(230)='SRV ', GPDLAT(230)=161.64, GPDLON(230)=-156.44, GPDGZS(230)=9999,
 GPDNAM(231)='BDP ', GPDLAT(231)=169.50, GPDLON(231)=-156.50, GPDGZS(231)=9999,
 GPDNAM(232)='PLN ', GPDLAT(232)=169.00, GPDLON(232)=-149.00, GPDGZS(232)=9999,
 GPDNAM(233)='PLS ', GPDLAT(233)=167.75, GPDLON(233)=-149.00, GPDGZS(233)=9999,
 GPDNAM(234)='COT ', GPDLAT(234)=165.34, GPDLON(234)=-155.95, GPDGZS(234)=9999,
 GPDNAM(235)='POR ', GPDLAT(235)=164.10, GPDLON(235)=-155.56, GPDGZS(235)=9999,
 GPDNAM(236)='WNL ', GPDLAT(236)=164.31, GPDLON(236)=-151.08, GPDGZS(236)=9999,
 GPDNAM(237)='KIL ', GPDLAT(237)=160.32, GPDLON(237)=-160.20, GPDGZS(237)=9999,
 GPDNAM(238)='MTV ', GPDLAT(238)=162.10, GPDLON(238)=-163.80, GPDGZS(238)=9999,
 GPDNAM(239)='ICC ', GPDLAT(239)=170.40, GPDLON(239)=-161.90, GPDGZS(239)=9999,
 GPDNAM(240)='BFX ', GPDLAT(240)=171.32, GPDLON(240)=-156.62, GPDGZS(240)=9999,
 GPDNAM(241)='U#2 ', GPDLAT(241)=170.97, GPDLON(241)=-178.53, GPDGZS(241)=   3,
 GPDNAM(242)='UHMI', GPDLAT(242)=168.92, GPDLON(242)=-179.48, GPDGZS(242)=   7,
 GPDNAM(243)='U#C ', GPDLAT(243)=166.17, GPDLON(243)=-169.83, GPDGZS(243)=   7,
 GPDNAM(244)='UHMA', GPDLAT(244)=164.68, GPDLON(244)= 170.42, GPDGZS(244)=  22,
 GPDNAM(245)='UHAZ', GPDLAT(245)=164.73, GPDLON(245)= 177.50, GPDGZS(245)=   5,
 GPDNAM(246)='U#6 ', GPDLAT(246)=163.05, GPDLON(246)= 179.32, GPDGZS(246)=  85,
 GPDNAM(247)='B#1 ', GPDLAT(247)=234.90, GPDLON(247)=-073.00, GPDGZS(247)=   0,
 GPDNAM(248)='B#2 ', GPDLAT(248)=232.30, GPDLON(248)=-075.20, GPDGZS(248)=   0,
 GPDNAM(249)='B#3 ', GPDLAT(249)=229.30, GPDLON(249)=-077.40, GPDGZS(249)=   0,
 GPDNAM(250)='B#4 ', GPDLAT(250)=228.90, GPDLON(250)=-078.50, GPDGZS(250)=   0,
 GPDNAM(251)='B#5 ', GPDLAT(251)=225.90, GPDLON(251)=-089.70, GPDGZS(251)=   0,
 GPDNAM(252)='B#6 ', GPDLAT(252)=225.90, GPDLON(252)=-093.60, GPDGZS(252)=   0,
 GPDNAM(253)='B#7 ', GPDLAT(253)=225.90, GPDLON(253)=-085.90, GPDGZS(253)=   0,
 GPDNAM(254)='B#8 ', GPDLAT(254)=227.90, GPDLON(254)=-095.00, GPDGZS(254)=   0,
 GPDNAM(255)='B#9 ', GPDLAT(255)=227.00, GPDLON(255)=-096.50, GPDGZS(255)=   0,
 GPDNAM(256)='C7H ', GPDLAT(256)=238.50, GPDLON(256)=-070.70, GPDGZS(256)=   0,
 GPDNAM(257)='9B6 ', GPDLAT(257)=242.60, GPDLON(257)=-068.60, GPDGZS(257)=   0,
 GPDNAM(258)='B#A ', GPDLAT(258)=240.50, GPDLON(258)=-069.40, GPDGZS(258)=   0,
 GPDNAM(259)='B#Q ', GPDLAT(259)=238.50, GPDLON(259)=-074.70, GPDGZS(259)=   0,
 GPDNAM(260)='B#B ', GPDLAT(260)=241.10, GPDLON(260)=-066.60, GPDGZS(260)=   0,
 GPDNAM(261)='B#S ', GPDLAT(261)=236.60, GPDLON(261)=-074.80, GPDGZS(261)=   0,
 GPDNAM(262)='B#Q ', GPDLAT(262)=240.30, GPDLON(262)=-073.20, GPDGZS(262)=   0,
 GPDNAM(263)='LS1 ', GPDLAT(263)=248.06, GPDLON(263)=-087.78, GPDGZS(263)= 183,
 GPDNAM(264)='LM1 ', GPDLAT(264)=245.33, GPDLON(264)=-086.42, GPDGZS(264)= 177,
 GPDNAM(265)='LH1 ', GPDLAT(265)=245.35, GPDLON(265)=-082.84, GPDGZS(265)= 177,
 GPDNAM(266)='LS2 ', GPDLAT(266)=247.56, GPDLON(266)=-086.55, GPDGZS(266)= 183,
 GPDNAM(267)='LE1 ', GPDLAT(267)=241.68, GPDLON(267)=-082.40, GPDGZS(267)= 174,
 GPDNAM(268)='LS3 ', GPDLAT(268)=247.32, GPDLON(268)=-089.87, GPDGZS(268)= 183,
 GPDNAM(269)='LM2 ', GPDLAT(269)=242.67, GPDLON(269)=-087.02, GPDGZS(269)= 177,
 GPDNAM(270)='LH2 ', GPDLAT(270)=244.28, GPDLON(270)=-082.42, GPDGZS(270)= 177,
 GPDNAM(271)='LO1 ', GPDLAT(271)=243.62, GPDLON(271)=-077.41, GPDGZS(271)=  75,
 GPDNAM(272)='LE2 ', GPDLAT(272)=242.47, GPDLON(272)=-081.22, GPDGZS(272)=9999,
 GPDNAM(273)='LO2 ', GPDLAT(273)=243.40, GPDLON(273)=-079.45, GPDGZS(273)=9999,
 GPDNAM(274)='LE3 ', GPDLAT(274)=242.74, GPDLON(274)=-079.35, GPDGZS(274)=9999,
 GPDNAM(275)='B#C ', GPDLAT(275)=256.30, GPDLON(275)=-148.20, GPDGZS(275)=   0,
 GPDNAM(276)='B#D ', GPDLAT(276)=242.50, GPDLON(276)=-130.50, GPDGZS(276)=   0,
 GPDNAM(277)='B#E ', GPDLAT(277)=251.90, GPDLON(277)=-155.90, GPDGZS(277)=   0,
 GPDNAM(278)='B#F ', GPDLAT(278)=246.10, GPDLON(278)=-131.00, GPDGZS(278)=   0,
 GPDNAM(279)='B#G ', GPDLAT(279)=240.90, GPDLON(279)=-137.50, GPDGZS(279)=   0,
 GPDNAM(280)='B#H ', GPDLAT(280)=239.20, GPDLON(280)=-124.00, GPDGZS(280)=   0,
 GPDNAM(281)='B#I ', GPDLAT(281)=241.80, GPDLON(281)=-124.40, GPDGZS(281)=   0,
 GPDNAM(282)='B#J ', GPDLAT(282)=246.20, GPDLON(282)=-124.20, GPDGZS(282)=   0,
 GPDNAM(283)='B#K ', GPDLAT(283)=240.40, GPDLON(283)=-124.50, GPDGZS(283)=   0,
 GPDNAM(284)='B#L ', GPDLAT(284)=257.00, GPDLON(284)=-177.70, GPDGZS(284)=   0,
 GPDNAM(285)='B#M ', GPDLAT(285)=223.40, GPDLON(285)=-162.30, GPDGZS(285)=   0,
 GPDNAM(286)='B#N ', GPDLAT(286)=217.20, GPDLON(286)=-157.80, GPDGZS(286)=   0,
 GPDNAM(287)='B#O ', GPDLAT(287)=219.30, GPDLON(287)=-160.80, GPDGZS(287)=   0,
 GPDNAM(288)='B#P ', GPDLAT(288)=217.40, GPDLON(288)=-152.50, GPDGZS(288)=   0,
 GPDNAM(289)='HOM ', GPDLAT(289)=159.77, GPDLON(289)=-151.17, GPDGZS(289)= 296,
 GPDNAM(290)='SAT ', GPDLAT(290)=129.70, GPDLON(290)=-098.01, GPDGZS(290)= 219,
 GPDNAM(291)='BNA ', GPDLAT(291)=136.25, GPDLON(291)=-086.57, GPDGZS(291)= 180,
 GPDNAM(292)='TUL ', GPDLAT(292)=136.18, GPDLON(292)=-095.56, GPDGZS(292)= 226,
 GPDNAM(293)='BFL ', GPDLAT(293)=135.24, GPDLON(293)=-119.03, GPDGZS(293)= 154,
 GPDNAM(294)='STL ', GPDLAT(294)=138.62, GPDLON(294)=-090.18, GPDGZS(294)= 139,
 GPDNAM(295)='PUB ', GPDLAT(295)=138.46, GPDLON(295)=-104.18, GPDGZS(295)=1618,
 GPDNAM(296)='CLE ', GPDLAT(296)=141.50, GPDLON(296)=-081.60, GPDGZS(296)= 213,
 GPDNAM(297)='PIH ', GPDLAT(297)=143.11, GPDLON(297)=-112.68, GPDGZS(297)=1382,
 GPDNAM(298)='S06 ', GPDLAT(298)=147.47, GPDLON(298)=-115.80, GPDGZS(298)=1011,
 GPDNAM(299)='G#1 ', GPDLAT(299)=136.50, GPDLON(299)=-100.80, GPDGZS(299)=9999,
 GPDNAM(300)='G#2 ', GPDLAT(300)=130.30, GPDLON(300)=-101.70, GPDGZS(300)=9999,
 GPDNAM(301)='G#3 ', GPDLAT(301)=127.70, GPDLON(301)=-102.50, GPDGZS(301)=9999,
 GPDNAM(302)='G#4 ', GPDLAT(302)=130.50, GPDLON(302)=-099.10, GPDGZS(302)=9999,
 GPDNAM(303)='G#5 ', GPDLAT(303)=128.40, GPDLON(303)=-098.70, GPDGZS(303)=9999,
 GPDNAM(304)='G#6 ', GPDLAT(304)=126.30, GPDLON(304)=-098.80, GPDGZS(304)=9999,
 GPDNAM(305)='G#7 ', GPDLAT(305)=224.40, GPDLON(305)=-097.40, GPDGZS(305)=   0,
 GPDNAM(306)='G#8 ', GPDLAT(306)=225.90, GPDLON(306)=-095.30, GPDGZS(306)=   0,
 GPDNAM(307)='G#9 ', GPDLAT(307)=224.50, GPDLON(307)=-094.40, GPDGZS(307)=   0,
 GPDNAM(308)='G#A ', GPDLAT(308)=223.30, GPDLON(308)=-095.60, GPDGZS(308)=   0,
 GPDNAM(309)='G#B ', GPDLAT(309)=118.30, GPDLON(309)=-094.20, GPDGZS(309)=9999,
 GPDNAM(310)='G#C ', GPDLAT(310)=221.40, GPDLON(310)=-093.10, GPDGZS(310)=   0,
 GPDNAM(311)='G#D ', GPDLAT(311)=223.30, GPDLON(311)=-091.60, GPDGZS(311)=   0,
 GPDNAM(312)='G#E ', GPDLAT(312)=223.70, GPDLON(312)=-088.70, GPDGZS(312)=   0,
 GPDNAM(313)='G#F ', GPDLAT(313)=223.00, GPDLON(313)=-085.00, GPDGZS(313)=   0,
 GPDNAM(314)='G#G ', GPDLAT(314)=123.50, GPDLON(314)=-098.00, GPDGZS(314)=9999,
 GPDNAM(315)='HYR ', GPDLAT(315)=146.02, GPDLON(315)=-091.45, GPDGZS(315)= 370,
 GPDNAM(316)='PMH ', GPDLAT(316)=138.83, GPDLON(316)=-082.80, GPDGZS(316)=9999,
 GPDNAM(317)='WOO ', GPDLAT(317)=138.88, GPDLON(317)=-078.52, GPDGZS(317)= 251,
 GPDNAM(318)='CBE ', GPDLAT(318)=139.62, GPDLON(318)=-078.76, GPDGZS(318)=9999,
 GPDNAM(319)='W54 ', GPDLAT(319)=139.61, GPDLON(319)=-077.01, GPDGZS(319)=9999,
 GPDNAM(320)='UHMD', GPDLAT(320)=164.43, GPDLON(320)=-173.23, GPDGZS(320)=   3,
 GPDNAM(321)='BGTL', GPDLAT(321)=176.53, GPDLON(321)=-068.75, GPDGZS(321)=  59,
 GPDNAM(322)='PABR', GPDLAT(322)=171.30, GPDLON(322)=-156.78, GPDGZS(322)=   4,
 GPDNAM(323)='PABA', GPDLAT(323)=170.13, GPDLON(323)=-143.63, GPDGZS(323)=  16,
 GPDNAM(324)='PALU', GPDLAT(324)=168.88, GPDLON(324)=-166.13, GPDGZS(324)=   3,
 GPDNAM(325)='PAOT', GPDLAT(325)=166.87, GPDLON(325)=-162.63, GPDGZS(325)=   5,
 GPDNAM(326)='PAUM', GPDLAT(326)=169.37, GPDLON(326)=-152.13, GPDGZS(326)=  85,
 GPDNAM(327)='PABT', GPDLAT(327)=166.92, GPDLON(327)=-151.52, GPDGZS(327)= 196,
 GPDNAM(328)='PATA', GPDLAT(328)=165.17, GPDLON(328)=-152.10, GPDGZS(328)=  67,
 GPDNAM(329)='PFYU', GPDLAT(329)=166.57, GPDLON(329)=-145.27, GPDGZS(329)= 131,
 GPDNAM(330)='PAOM', GPDLAT(330)=164.50, GPDLON(330)=-165.43, GPDGZS(330)=   7,
 GPDNAM(331)='PAUN', GPDLAT(331)=163.88, GPDLON(331)=-160.80, GPDGZS(331)=   6,
 GPDNAM(332)='PACZ', GPDLAT(332)=161.78, GPDLON(332)=-166.03, GPDGZS(332)= 146,
 GPDNAM(333)='PABE', GPDLAT(333)=160.78, GPDLON(333)=-161.80, GPDGZS(333)=  46,
 GPDNAM(334)='PAGA', GPDLAT(334)=164.73, GPDLON(334)=-156.93, GPDGZS(334)=  46,
 GPDNAM(335)='PAMC', GPDLAT(335)=162.97, GPDLON(335)=-155.62, GPDGZS(335)= 103,
 GPDNAM(336)='PATL', GPDLAT(336)=162.90, GPDLON(336)=-155.98, GPDGZS(336)= 294,
 GPDNAM(337)='PASV', GPDLAT(337)=161.10, GPDLON(337)=-155.58, GPDGZS(337)= 484,
 GPDNAM(338)='PATK', GPDLAT(338)=162.30, GPDLON(338)=-150.10, GPDGZS(338)= 109,
 GPDNAM(339)='PAEN', GPDLAT(339)=160.57, GPDLON(339)=-151.25, GPDGZS(339)=  29,
 GPDNAM(340)='PAFA', GPDLAT(340)=164.82, GPDLON(340)=-147.87, GPDGZS(340)= 138,
 GPDNAM(341)='PAEI', GPDLAT(341)=164.67, GPDLON(341)=-147.10, GPDGZS(341)= 167,
 GPDNAM(342)='PABI', GPDLAT(342)=163.97, GPDLON(342)=-145.70, GPDGZS(342)= 398,
 GPDNAM(343)='PAGK', GPDLAT(343)=162.15, GPDLON(343)=-145.45, GPDGZS(343)= 481,
 GPDNAM(344)='PAED', GPDLAT(344)=161.25, GPDLON(344)=-149.80, GPDGZS(344)=  65,
 GPDNAM(345)='PANC', GPDLAT(345)=161.17, GPDLON(345)=-150.02, GPDGZS(345)=  40,
 GPDNAM(346)='PAAQ', GPDLAT(346)=161.60, GPDLON(346)=-149.08, GPDGZS(346)=  71,
 GPDNAM(347)='PAVW', GPDLAT(347)=261.13, GPDLON(347)=-146.35, GPDGZS(347)=  10,
 GPDNAM(348)='PAEG', GPDLAT(348)=164.78, GPDLON(348)=-141.15, GPDGZS(348)= 268,
 GPDNAM(349)='PAOR', GPDLAT(349)=162.97, GPDLON(349)=-141.93, GPDGZS(349)= 525,
 GPDNAM(350)='PACV', GPDLAT(350)=160.50, GPDLON(350)=-145.50, GPDGZS(350)=  13,
 GPDNAM(351)='PAEH', GPDLAT(351)=158.65, GPDLON(351)=-162.07, GPDGZS(351)= 165,
 GPDNAM(352)='PASN', GPDLAT(352)=157.15, GPDLON(352)=-170.22, GPDGZS(352)=   9,
 GPDNAM(353)='PACD', GPDLAT(353)=155.20, GPDLON(353)=-162.73, GPDGZS(353)=  31,
 GPDNAM(354)='PADL', GPDLAT(354)=159.05, GPDLON(354)=-158.52, GPDGZS(354)=  29,
 GPDNAM(355)='PAKN', GPDLAT(355)=158.68, GPDLON(355)=-156.65, GPDGZS(355)=  15,
 GPDNAM(356)='PAIL', GPDLAT(356)=159.75, GPDLON(356)=-154.92, GPDGZS(356)=  49,
 GPDNAM(357)='PAHO', GPDLAT(357)=159.63, GPDLON(357)=-151.50, GPDGZS(357)=  22,
 GPDNAM(358)='PAMD', GPDLAT(358)=159.43, GPDLON(358)=-146.33, GPDGZS(358)=  14,
 GPDNAM(359)='PADQ', GPDLAT(359)=157.75, GPDLON(359)=-152.50, GPDGZS(359)=  34,
 GPDNAM(360)='PAYA', GPDLAT(360)=159.52, GPDLON(360)=-139.67, GPDGZS(360)=   9,
 GPDNAM(361)='PAGY', GPDLAT(361)=159.47, GPDLON(361)=-135.30, GPDGZS(361)=   5,
 GPDNAM(362)='PAGS', GPDLAT(362)=158.42, GPDLON(362)=-135.73, GPDGZS(362)=   9,
 GPDNAM(363)='PASI', GPDLAT(363)=157.07, GPDLON(363)=-135.35, GPDGZS(363)=  20,
 GPDNAM(364)='PAJN', GPDLAT(364)=158.37, GPDLON(364)=-134.58, GPDGZS(364)=   7,
 GPDNAM(365)='PAPG', GPDLAT(365)=156.82, GPDLON(365)=-132.97, GPDGZS(365)=   0,
 GPDNAM(366)='PAWG', GPDLAT(366)=156.48, GPDLON(366)=-132.37, GPDGZS(366)=  13,
 GPDNAM(367)='PAKT', GPDLAT(367)=155.35, GPDLON(367)=-131.70, GPDGZS(367)=  29,
 GPDNAM(368)='PANT', GPDLAT(368)=155.03, GPDLON(368)=-131.57, GPDGZS(368)=  34,
 GPDNAM(369)='PASY', GPDLAT(369)=152.72, GPDLON(369)= 174.12, GPDGZS(369)=  30,
 GPDNAM(370)='PADK', GPDLAT(370)=151.88, GPDLON(370)=-176.65, GPDGZS(370)=   4,
 GPDNAM(371)='PIKO', GPDLAT(371)=152.95, GPDLON(371)=-168.85, GPDGZS(371)=  21,
 GPDNAM(372)='PADU', GPDLAT(372)=153.90, GPDLON(372)=-166.55, GPDGZS(372)=   4,
 GPDNAM(373)='CWZV', GPDLAT(373)=151.93, GPDLON(373)=-131.02, GPDGZS(373)=  92,
 GPDNAM(374)='CYVQ', GPDLAT(374)=165.28, GPDLON(374)=-126.75, GPDGZS(374)=  95,
 GPDNAM(375)='CYSY', GPDLAT(375)=172.00, GPDLON(375)=-125.28, GPDGZS(375)=  86,
 GPDNAM(376)='CYPE', GPDLAT(376)=156.23, GPDLON(376)=-117.43, GPDGZS(376)= 571,
 GPDNAM(377)='CYMD', GPDLAT(377)=176.23, GPDLON(377)=-119.33, GPDGZS(377)=  12,
 GPDNAM(378)='CYYL', GPDLAT(378)=156.87, GPDLON(378)=-101.08, GPDGZS(378)= 357,
 GPDNAM(379)='CYTH', GPDLAT(379)=155.75, GPDLON(379)=-097.87, GPDGZS(379)= 206,